#set debug=0
#set warn=0
#set verbose=0
clock {
	timezone PST+8PDT;
	starttime '2012-08-1 00:00:00';
	stoptime '2012-08-2 00:00:00';
}

#include "water_and_setpoint_schedule.glm";
#include "appliance_schedules.glm";
#include "IEEE_13.glm";
module tape;
module climate;
module residential {
	implicit_enduses NONE;
};
module powerflow {
	solver_method NR;
	NR_iteration_limit 50;
};

object climate {
	name MyClimate;
	tmyfile NJ-Newark.tmy2;
	interpolate LINEAR;
	object recorder {
		property temperature;
		limit 388800;
		interval 60;
		file temp_out.csv;
	};
}

object triplex_line_configuration {
	name trip_line_config;
	conductor_1 object triplex_line_conductor {
		resistance 0.97;
		geometric_mean_radius 0.01111;
	};
	conductor_2 object triplex_line_conductor {
		resistance 0.97;
		geometric_mean_radius 0.01111;
	};
	conductor_N object triplex_line_conductor {
		resistance 0.97;
		geometric_mean_radius 0.01111;
	};
	insulation_thickness 0.08;
	diameter 0.368;
	}

object transformer {
	name T_1_AS_632;
	from node632;
	to TP_T_1_AS_632;
	phases AS;
	configuration object transformer_configuration {
		connect_type SINGLE_PHASE_CENTER_TAPPED;
		install_type POLETOP;
		shunt_impedance 10000+10000j;
		primary_voltage 2401.777000;
		secondary_voltage 120.000000;
		powerA_rating 20.000000 kVA;
		impedance 0.00033+0.0022j;
	};
	groupid Distribution_Trans_AS;
}

object triplex_meter {
	name TP_T_1_AS_632;
	phases AS;
	nominal_voltage 120.000000;
	groupid Trans_Meter_AS;
}

object transformer {
	name T_2_AS_633;
	from node633;
	to TP_T_2_AS_633;
	phases AS;
	configuration object transformer_configuration {
		connect_type SINGLE_PHASE_CENTER_TAPPED;
		install_type POLETOP;
		shunt_impedance 10000+10000j;
		primary_voltage 2401.777000;
		secondary_voltage 120.000000;
		powerA_rating 25.000000 kVA;
		impedance 0.00033+0.0022j;
	};
	groupid Distribution_Trans_AS;
}

object triplex_meter {
	name TP_T_2_AS_633;
	phases AS;
	nominal_voltage 120.000000;
	groupid Trans_Meter_AS;
}

object transformer {
	name T_3_AS_652;
	from node652;
	to TP_T_3_AS_652;
	phases AS;
	configuration object transformer_configuration {
		connect_type SINGLE_PHASE_CENTER_TAPPED;
		install_type POLETOP;
		shunt_impedance 10000+10000j;
		primary_voltage 2401.777000;
		secondary_voltage 120.000000;
		powerA_rating 35.000000 kVA;
		impedance 0.00033+0.0022j;
	};
	groupid Distribution_Trans_AS;
}

object triplex_meter {
	name TP_T_3_AS_652;
	phases AS;
	nominal_voltage 120.000000;
	groupid Trans_Meter_AS;
}

object transformer {
	name T_4_AS_684;
	from node684;
	to TP_T_4_AS_684;
	phases AS;
	configuration object transformer_configuration {
		connect_type SINGLE_PHASE_CENTER_TAPPED;
		install_type POLETOP;
		shunt_impedance 10000+10000j;
		primary_voltage 2401.777000;
		secondary_voltage 120.000000;
		powerA_rating 30.000000 kVA;
		impedance 0.00033+0.0022j;
	};
	groupid Distribution_Trans_AS;
}

object triplex_meter {
	name TP_T_4_AS_684;
	phases AS;
	nominal_voltage 120.000000;
	groupid Trans_Meter_AS;
}

object transformer {
	name T_5_AS_671;
	from node671;
	to TP_T_5_AS_671;
	phases AS;
	configuration object transformer_configuration {
		connect_type SINGLE_PHASE_CENTER_TAPPED;
		install_type POLETOP;
		shunt_impedance 10000+10000j;
		primary_voltage 2401.777000;
		secondary_voltage 120.000000;
		powerA_rating 20.000000 kVA;
		impedance 0.00033+0.0022j;
	};
	groupid Distribution_Trans_AS;
}

object triplex_meter {
	name TP_T_5_AS_671;
	phases AS;
	nominal_voltage 120.000000;
	groupid Trans_Meter_AS;
}

object transformer {
	name T_6_AS_680;
	from node680;
	to TP_T_6_AS_680;
	phases AS;
	configuration object transformer_configuration {
		connect_type SINGLE_PHASE_CENTER_TAPPED;
		install_type POLETOP;
		shunt_impedance 10000+10000j;
		primary_voltage 2401.777000;
		secondary_voltage 120.000000;
		powerA_rating 35.000000 kVA;
		impedance 0.00033+0.0022j;
	};
	groupid Distribution_Trans_AS;
}

object triplex_meter {
	name TP_T_6_AS_680;
	phases AS;
	nominal_voltage 120.000000;
	groupid Trans_Meter_AS;
}

object transformer {
	name T_7_AS_692;
	from node692;
	to TP_T_7_AS_692;
	phases AS;
	configuration object transformer_configuration {
		connect_type SINGLE_PHASE_CENTER_TAPPED;
		install_type POLETOP;
		shunt_impedance 10000+10000j;
		primary_voltage 2401.777000;
		secondary_voltage 120.000000;
		powerA_rating 15.000000 kVA;
		impedance 0.00033+0.0022j;
	};
	groupid Distribution_Trans_AS;
}

object triplex_meter {
	name TP_T_7_AS_692;
	phases AS;
	nominal_voltage 120.000000;
	groupid Trans_Meter_AS;
}

object transformer {
	name T_8_AS_675;
	from node675;
	to TP_T_8_AS_675;
	phases AS;
	configuration object transformer_configuration {
		connect_type SINGLE_PHASE_CENTER_TAPPED;
		install_type POLETOP;
		shunt_impedance 10000+10000j;
		primary_voltage 2401.777000;
		secondary_voltage 120.000000;
		powerA_rating 25.000000 kVA;
		impedance 0.00033+0.0022j;
	};
	groupid Distribution_Trans_AS;
}

object triplex_meter {
	name TP_T_8_AS_675;
	phases AS;
	nominal_voltage 120.000000;
	groupid Trans_Meter_AS;
}

object transformer {
	name T_9_AS_632;
	from node632;
	to TP_T_9_AS_632;
	phases AS;
	configuration object transformer_configuration {
		connect_type SINGLE_PHASE_CENTER_TAPPED;
		install_type POLETOP;
		shunt_impedance 10000+10000j;
		primary_voltage 2401.777000;
		secondary_voltage 120.000000;
		powerA_rating 35.000000 kVA;
		impedance 0.00033+0.0022j;
	};
	groupid Distribution_Trans_AS;
}

object triplex_meter {
	name TP_T_9_AS_632;
	phases AS;
	nominal_voltage 120.000000;
	groupid Trans_Meter_AS;
}

object transformer {
	name T_10_AS_633;
	from node633;
	to TP_T_10_AS_633;
	phases AS;
	configuration object transformer_configuration {
		connect_type SINGLE_PHASE_CENTER_TAPPED;
		install_type POLETOP;
		shunt_impedance 10000+10000j;
		primary_voltage 2401.777000;
		secondary_voltage 120.000000;
		powerA_rating 30.000000 kVA;
		impedance 0.00033+0.0022j;
	};
	groupid Distribution_Trans_AS;
}

object triplex_meter {
	name TP_T_10_AS_633;
	phases AS;
	nominal_voltage 120.000000;
	groupid Trans_Meter_AS;
}

object transformer {
	name T_11_AS_652;
	from node652;
	to TP_T_11_AS_652;
	phases AS;
	configuration object transformer_configuration {
		connect_type SINGLE_PHASE_CENTER_TAPPED;
		install_type POLETOP;
		shunt_impedance 10000+10000j;
		primary_voltage 2401.777000;
		secondary_voltage 120.000000;
		powerA_rating 35.000000 kVA;
		impedance 0.00033+0.0022j;
	};
	groupid Distribution_Trans_AS;
}

object triplex_meter {
	name TP_T_11_AS_652;
	phases AS;
	nominal_voltage 120.000000;
	groupid Trans_Meter_AS;
}

object transformer {
	name T_12_AS_684;
	from node684;
	to TP_T_12_AS_684;
	phases AS;
	configuration object transformer_configuration {
		connect_type SINGLE_PHASE_CENTER_TAPPED;
		install_type POLETOP;
		shunt_impedance 10000+10000j;
		primary_voltage 2401.777000;
		secondary_voltage 120.000000;
		powerA_rating 35.000000 kVA;
		impedance 0.00033+0.0022j;
	};
	groupid Distribution_Trans_AS;
}

object triplex_meter {
	name TP_T_12_AS_684;
	phases AS;
	nominal_voltage 120.000000;
	groupid Trans_Meter_AS;
}

object transformer {
	name T_13_AS_671;
	from node671;
	to TP_T_13_AS_671;
	phases AS;
	configuration object transformer_configuration {
		connect_type SINGLE_PHASE_CENTER_TAPPED;
		install_type POLETOP;
		shunt_impedance 10000+10000j;
		primary_voltage 2401.777000;
		secondary_voltage 120.000000;
		powerA_rating 35.000000 kVA;
		impedance 0.00033+0.0022j;
	};
	groupid Distribution_Trans_AS;
}

object triplex_meter {
	name TP_T_13_AS_671;
	phases AS;
	nominal_voltage 120.000000;
	groupid Trans_Meter_AS;
}

object transformer {
	name T_14_AS_680;
	from node680;
	to TP_T_14_AS_680;
	phases AS;
	configuration object transformer_configuration {
		connect_type SINGLE_PHASE_CENTER_TAPPED;
		install_type POLETOP;
		shunt_impedance 10000+10000j;
		primary_voltage 2401.777000;
		secondary_voltage 120.000000;
		powerA_rating 15.000000 kVA;
		impedance 0.00033+0.0022j;
	};
	groupid Distribution_Trans_AS;
}

object triplex_meter {
	name TP_T_14_AS_680;
	phases AS;
	nominal_voltage 120.000000;
	groupid Trans_Meter_AS;
}

object transformer {
	name T_15_AS_692;
	from node692;
	to TP_T_15_AS_692;
	phases AS;
	configuration object transformer_configuration {
		connect_type SINGLE_PHASE_CENTER_TAPPED;
		install_type POLETOP;
		shunt_impedance 10000+10000j;
		primary_voltage 2401.777000;
		secondary_voltage 120.000000;
		powerA_rating 30.000000 kVA;
		impedance 0.00033+0.0022j;
	};
	groupid Distribution_Trans_AS;
}

object triplex_meter {
	name TP_T_15_AS_692;
	phases AS;
	nominal_voltage 120.000000;
	groupid Trans_Meter_AS;
}

object transformer {
	name T_16_AS_675;
	from node675;
	to TP_T_16_AS_675;
	phases AS;
	configuration object transformer_configuration {
		connect_type SINGLE_PHASE_CENTER_TAPPED;
		install_type POLETOP;
		shunt_impedance 10000+10000j;
		primary_voltage 2401.777000;
		secondary_voltage 120.000000;
		powerA_rating 25.000000 kVA;
		impedance 0.00033+0.0022j;
	};
	groupid Distribution_Trans_AS;
}

object triplex_meter {
	name TP_T_16_AS_675;
	phases AS;
	nominal_voltage 120.000000;
	groupid Trans_Meter_AS;
}

object transformer {
	name T_17_AS_632;
	from node632;
	to TP_T_17_AS_632;
	phases AS;
	configuration object transformer_configuration {
		connect_type SINGLE_PHASE_CENTER_TAPPED;
		install_type POLETOP;
		shunt_impedance 10000+10000j;
		primary_voltage 2401.777000;
		secondary_voltage 120.000000;
		powerA_rating 15.000000 kVA;
		impedance 0.00033+0.0022j;
	};
	groupid Distribution_Trans_AS;
}

object triplex_meter {
	name TP_T_17_AS_632;
	phases AS;
	nominal_voltage 120.000000;
	groupid Trans_Meter_AS;
}

object transformer {
	name T_18_AS_633;
	from node633;
	to TP_T_18_AS_633;
	phases AS;
	configuration object transformer_configuration {
		connect_type SINGLE_PHASE_CENTER_TAPPED;
		install_type POLETOP;
		shunt_impedance 10000+10000j;
		primary_voltage 2401.777000;
		secondary_voltage 120.000000;
		powerA_rating 15.000000 kVA;
		impedance 0.00033+0.0022j;
	};
	groupid Distribution_Trans_AS;
}

object triplex_meter {
	name TP_T_18_AS_633;
	phases AS;
	nominal_voltage 120.000000;
	groupid Trans_Meter_AS;
}

object transformer {
	name T_19_AS_652;
	from node652;
	to TP_T_19_AS_652;
	phases AS;
	configuration object transformer_configuration {
		connect_type SINGLE_PHASE_CENTER_TAPPED;
		install_type POLETOP;
		shunt_impedance 10000+10000j;
		primary_voltage 2401.777000;
		secondary_voltage 120.000000;
		powerA_rating 30.000000 kVA;
		impedance 0.00033+0.0022j;
	};
	groupid Distribution_Trans_AS;
}

object triplex_meter {
	name TP_T_19_AS_652;
	phases AS;
	nominal_voltage 120.000000;
	groupid Trans_Meter_AS;
}

object transformer {
	name T_20_AS_684;
	from node684;
	to TP_T_20_AS_684;
	phases AS;
	configuration object transformer_configuration {
		connect_type SINGLE_PHASE_CENTER_TAPPED;
		install_type POLETOP;
		shunt_impedance 10000+10000j;
		primary_voltage 2401.777000;
		secondary_voltage 120.000000;
		powerA_rating 30.000000 kVA;
		impedance 0.00033+0.0022j;
	};
	groupid Distribution_Trans_AS;
}

object triplex_meter {
	name TP_T_20_AS_684;
	phases AS;
	nominal_voltage 120.000000;
	groupid Trans_Meter_AS;
}

object transformer {
	name T_21_AS_671;
	from node671;
	to TP_T_21_AS_671;
	phases AS;
	configuration object transformer_configuration {
		connect_type SINGLE_PHASE_CENTER_TAPPED;
		install_type POLETOP;
		shunt_impedance 10000+10000j;
		primary_voltage 2401.777000;
		secondary_voltage 120.000000;
		powerA_rating 15.000000 kVA;
		impedance 0.00033+0.0022j;
	};
	groupid Distribution_Trans_AS;
}

object triplex_meter {
	name TP_T_21_AS_671;
	phases AS;
	nominal_voltage 120.000000;
	groupid Trans_Meter_AS;
}

object transformer {
	name T_22_AS_680;
	from node680;
	to TP_T_22_AS_680;
	phases AS;
	configuration object transformer_configuration {
		connect_type SINGLE_PHASE_CENTER_TAPPED;
		install_type POLETOP;
		shunt_impedance 10000+10000j;
		primary_voltage 2401.777000;
		secondary_voltage 120.000000;
		powerA_rating 30.000000 kVA;
		impedance 0.00033+0.0022j;
	};
	groupid Distribution_Trans_AS;
}

object triplex_meter {
	name TP_T_22_AS_680;
	phases AS;
	nominal_voltage 120.000000;
	groupid Trans_Meter_AS;
}

object transformer {
	name T_23_AS_692;
	from node692;
	to TP_T_23_AS_692;
	phases AS;
	configuration object transformer_configuration {
		connect_type SINGLE_PHASE_CENTER_TAPPED;
		install_type POLETOP;
		shunt_impedance 10000+10000j;
		primary_voltage 2401.777000;
		secondary_voltage 120.000000;
		powerA_rating 25.000000 kVA;
		impedance 0.00033+0.0022j;
	};
	groupid Distribution_Trans_AS;
}

object triplex_meter {
	name TP_T_23_AS_692;
	phases AS;
	nominal_voltage 120.000000;
	groupid Trans_Meter_AS;
}

object transformer {
	name T_24_AS_675;
	from node675;
	to TP_T_24_AS_675;
	phases AS;
	configuration object transformer_configuration {
		connect_type SINGLE_PHASE_CENTER_TAPPED;
		install_type POLETOP;
		shunt_impedance 10000+10000j;
		primary_voltage 2401.777000;
		secondary_voltage 120.000000;
		powerA_rating 30.000000 kVA;
		impedance 0.00033+0.0022j;
	};
	groupid Distribution_Trans_AS;
}

object triplex_meter {
	name TP_T_24_AS_675;
	phases AS;
	nominal_voltage 120.000000;
	groupid Trans_Meter_AS;
}

object transformer {
	name T_25_AS_632;
	from node632;
	to TP_T_25_AS_632;
	phases AS;
	configuration object transformer_configuration {
		connect_type SINGLE_PHASE_CENTER_TAPPED;
		install_type POLETOP;
		shunt_impedance 10000+10000j;
		primary_voltage 2401.777000;
		secondary_voltage 120.000000;
		powerA_rating 20.000000 kVA;
		impedance 0.00033+0.0022j;
	};
	groupid Distribution_Trans_AS;
}

object triplex_meter {
	name TP_T_25_AS_632;
	phases AS;
	nominal_voltage 120.000000;
	groupid Trans_Meter_AS;
}

object transformer {
	name T_26_AS_633;
	from node633;
	to TP_T_26_AS_633;
	phases AS;
	configuration object transformer_configuration {
		connect_type SINGLE_PHASE_CENTER_TAPPED;
		install_type POLETOP;
		shunt_impedance 10000+10000j;
		primary_voltage 2401.777000;
		secondary_voltage 120.000000;
		powerA_rating 25.000000 kVA;
		impedance 0.00033+0.0022j;
	};
	groupid Distribution_Trans_AS;
}

object triplex_meter {
	name TP_T_26_AS_633;
	phases AS;
	nominal_voltage 120.000000;
	groupid Trans_Meter_AS;
}

object transformer {
	name T_27_AS_652;
	from node652;
	to TP_T_27_AS_652;
	phases AS;
	configuration object transformer_configuration {
		connect_type SINGLE_PHASE_CENTER_TAPPED;
		install_type POLETOP;
		shunt_impedance 10000+10000j;
		primary_voltage 2401.777000;
		secondary_voltage 120.000000;
		powerA_rating 35.000000 kVA;
		impedance 0.00033+0.0022j;
	};
	groupid Distribution_Trans_AS;
}

object triplex_meter {
	name TP_T_27_AS_652;
	phases AS;
	nominal_voltage 120.000000;
	groupid Trans_Meter_AS;
}

object transformer {
	name T_28_AS_684;
	from node684;
	to TP_T_28_AS_684;
	phases AS;
	configuration object transformer_configuration {
		connect_type SINGLE_PHASE_CENTER_TAPPED;
		install_type POLETOP;
		shunt_impedance 10000+10000j;
		primary_voltage 2401.777000;
		secondary_voltage 120.000000;
		powerA_rating 35.000000 kVA;
		impedance 0.00033+0.0022j;
	};
	groupid Distribution_Trans_AS;
}

object triplex_meter {
	name TP_T_28_AS_684;
	phases AS;
	nominal_voltage 120.000000;
	groupid Trans_Meter_AS;
}

object transformer {
	name T_29_AS_671;
	from node671;
	to TP_T_29_AS_671;
	phases AS;
	configuration object transformer_configuration {
		connect_type SINGLE_PHASE_CENTER_TAPPED;
		install_type POLETOP;
		shunt_impedance 10000+10000j;
		primary_voltage 2401.777000;
		secondary_voltage 120.000000;
		powerA_rating 25.000000 kVA;
		impedance 0.00033+0.0022j;
	};
	groupid Distribution_Trans_AS;
}

object triplex_meter {
	name TP_T_29_AS_671;
	phases AS;
	nominal_voltage 120.000000;
	groupid Trans_Meter_AS;
}

object transformer {
	name T_30_AS_680;
	from node680;
	to TP_T_30_AS_680;
	phases AS;
	configuration object transformer_configuration {
		connect_type SINGLE_PHASE_CENTER_TAPPED;
		install_type POLETOP;
		shunt_impedance 10000+10000j;
		primary_voltage 2401.777000;
		secondary_voltage 120.000000;
		powerA_rating 15.000000 kVA;
		impedance 0.00033+0.0022j;
	};
	groupid Distribution_Trans_AS;
}

object triplex_meter {
	name TP_T_30_AS_680;
	phases AS;
	nominal_voltage 120.000000;
	groupid Trans_Meter_AS;
}

object transformer {
	name T_31_AS_692;
	from node692;
	to TP_T_31_AS_692;
	phases AS;
	configuration object transformer_configuration {
		connect_type SINGLE_PHASE_CENTER_TAPPED;
		install_type POLETOP;
		shunt_impedance 10000+10000j;
		primary_voltage 2401.777000;
		secondary_voltage 120.000000;
		powerA_rating 30.000000 kVA;
		impedance 0.00033+0.0022j;
	};
	groupid Distribution_Trans_AS;
}

object triplex_meter {
	name TP_T_31_AS_692;
	phases AS;
	nominal_voltage 120.000000;
	groupid Trans_Meter_AS;
}

object transformer {
	name T_32_AS_675;
	from node675;
	to TP_T_32_AS_675;
	phases AS;
	configuration object transformer_configuration {
		connect_type SINGLE_PHASE_CENTER_TAPPED;
		install_type POLETOP;
		shunt_impedance 10000+10000j;
		primary_voltage 2401.777000;
		secondary_voltage 120.000000;
		powerA_rating 30.000000 kVA;
		impedance 0.00033+0.0022j;
	};
	groupid Distribution_Trans_AS;
}

object triplex_meter {
	name TP_T_32_AS_675;
	phases AS;
	nominal_voltage 120.000000;
	groupid Trans_Meter_AS;
}

object transformer {
	name T_33_AS_632;
	from node632;
	to TP_T_33_AS_632;
	phases AS;
	configuration object transformer_configuration {
		connect_type SINGLE_PHASE_CENTER_TAPPED;
		install_type POLETOP;
		shunt_impedance 10000+10000j;
		primary_voltage 2401.777000;
		secondary_voltage 120.000000;
		powerA_rating 30.000000 kVA;
		impedance 0.00033+0.0022j;
	};
	groupid Distribution_Trans_AS;
}

object triplex_meter {
	name TP_T_33_AS_632;
	phases AS;
	nominal_voltage 120.000000;
	groupid Trans_Meter_AS;
}

object transformer {
	name T_34_AS_633;
	from node633;
	to TP_T_34_AS_633;
	phases AS;
	configuration object transformer_configuration {
		connect_type SINGLE_PHASE_CENTER_TAPPED;
		install_type POLETOP;
		shunt_impedance 10000+10000j;
		primary_voltage 2401.777000;
		secondary_voltage 120.000000;
		powerA_rating 35.000000 kVA;
		impedance 0.00033+0.0022j;
	};
	groupid Distribution_Trans_AS;
}

object triplex_meter {
	name TP_T_34_AS_633;
	phases AS;
	nominal_voltage 120.000000;
	groupid Trans_Meter_AS;
}

object transformer {
	name T_35_AS_652;
	from node652;
	to TP_T_35_AS_652;
	phases AS;
	configuration object transformer_configuration {
		connect_type SINGLE_PHASE_CENTER_TAPPED;
		install_type POLETOP;
		shunt_impedance 10000+10000j;
		primary_voltage 2401.777000;
		secondary_voltage 120.000000;
		powerA_rating 30.000000 kVA;
		impedance 0.00033+0.0022j;
	};
	groupid Distribution_Trans_AS;
}

object triplex_meter {
	name TP_T_35_AS_652;
	phases AS;
	nominal_voltage 120.000000;
	groupid Trans_Meter_AS;
}

object transformer {
	name T_36_AS_684;
	from node684;
	to TP_T_36_AS_684;
	phases AS;
	configuration object transformer_configuration {
		connect_type SINGLE_PHASE_CENTER_TAPPED;
		install_type POLETOP;
		shunt_impedance 10000+10000j;
		primary_voltage 2401.777000;
		secondary_voltage 120.000000;
		powerA_rating 20.000000 kVA;
		impedance 0.00033+0.0022j;
	};
	groupid Distribution_Trans_AS;
}

object triplex_meter {
	name TP_T_36_AS_684;
	phases AS;
	nominal_voltage 120.000000;
	groupid Trans_Meter_AS;
}

object transformer {
	name T_37_AS_671;
	from node671;
	to TP_T_37_AS_671;
	phases AS;
	configuration object transformer_configuration {
		connect_type SINGLE_PHASE_CENTER_TAPPED;
		install_type POLETOP;
		shunt_impedance 10000+10000j;
		primary_voltage 2401.777000;
		secondary_voltage 120.000000;
		powerA_rating 35.000000 kVA;
		impedance 0.00033+0.0022j;
	};
	groupid Distribution_Trans_AS;
}

object triplex_meter {
	name TP_T_37_AS_671;
	phases AS;
	nominal_voltage 120.000000;
	groupid Trans_Meter_AS;
}

object transformer {
	name T_38_AS_680;
	from node680;
	to TP_T_38_AS_680;
	phases AS;
	configuration object transformer_configuration {
		connect_type SINGLE_PHASE_CENTER_TAPPED;
		install_type POLETOP;
		shunt_impedance 10000+10000j;
		primary_voltage 2401.777000;
		secondary_voltage 120.000000;
		powerA_rating 30.000000 kVA;
		impedance 0.00033+0.0022j;
	};
	groupid Distribution_Trans_AS;
}

object triplex_meter {
	name TP_T_38_AS_680;
	phases AS;
	nominal_voltage 120.000000;
	groupid Trans_Meter_AS;
}

object transformer {
	name T_39_AS_692;
	from node692;
	to TP_T_39_AS_692;
	phases AS;
	configuration object transformer_configuration {
		connect_type SINGLE_PHASE_CENTER_TAPPED;
		install_type POLETOP;
		shunt_impedance 10000+10000j;
		primary_voltage 2401.777000;
		secondary_voltage 120.000000;
		powerA_rating 35.000000 kVA;
		impedance 0.00033+0.0022j;
	};
	groupid Distribution_Trans_AS;
}

object triplex_meter {
	name TP_T_39_AS_692;
	phases AS;
	nominal_voltage 120.000000;
	groupid Trans_Meter_AS;
}

object transformer {
	name T_40_AS_675;
	from node675;
	to TP_T_40_AS_675;
	phases AS;
	configuration object transformer_configuration {
		connect_type SINGLE_PHASE_CENTER_TAPPED;
		install_type POLETOP;
		shunt_impedance 10000+10000j;
		primary_voltage 2401.777000;
		secondary_voltage 120.000000;
		powerA_rating 15.000000 kVA;
		impedance 0.00033+0.0022j;
	};
	groupid Distribution_Trans_AS;
}

object triplex_meter {
	name TP_T_40_AS_675;
	phases AS;
	nominal_voltage 120.000000;
	groupid Trans_Meter_AS;
}

object transformer {
	name T_41_AS_632;
	from node632;
	to TP_T_41_AS_632;
	phases AS;
	configuration object transformer_configuration {
		connect_type SINGLE_PHASE_CENTER_TAPPED;
		install_type POLETOP;
		shunt_impedance 10000+10000j;
		primary_voltage 2401.777000;
		secondary_voltage 120.000000;
		powerA_rating 25.000000 kVA;
		impedance 0.00033+0.0022j;
	};
	groupid Distribution_Trans_AS;
}

object triplex_meter {
	name TP_T_41_AS_632;
	phases AS;
	nominal_voltage 120.000000;
	groupid Trans_Meter_AS;
}

object transformer {
	name T_42_AS_633;
	from node633;
	to TP_T_42_AS_633;
	phases AS;
	configuration object transformer_configuration {
		connect_type SINGLE_PHASE_CENTER_TAPPED;
		install_type POLETOP;
		shunt_impedance 10000+10000j;
		primary_voltage 2401.777000;
		secondary_voltage 120.000000;
		powerA_rating 30.000000 kVA;
		impedance 0.00033+0.0022j;
	};
	groupid Distribution_Trans_AS;
}

object triplex_meter {
	name TP_T_42_AS_633;
	phases AS;
	nominal_voltage 120.000000;
	groupid Trans_Meter_AS;
}

object transformer {
	name T_43_AS_652;
	from node652;
	to TP_T_43_AS_652;
	phases AS;
	configuration object transformer_configuration {
		connect_type SINGLE_PHASE_CENTER_TAPPED;
		install_type POLETOP;
		shunt_impedance 10000+10000j;
		primary_voltage 2401.777000;
		secondary_voltage 120.000000;
		powerA_rating 20.000000 kVA;
		impedance 0.00033+0.0022j;
	};
	groupid Distribution_Trans_AS;
}

object triplex_meter {
	name TP_T_43_AS_652;
	phases AS;
	nominal_voltage 120.000000;
	groupid Trans_Meter_AS;
}

object transformer {
	name T_44_AS_684;
	from node684;
	to TP_T_44_AS_684;
	phases AS;
	configuration object transformer_configuration {
		connect_type SINGLE_PHASE_CENTER_TAPPED;
		install_type POLETOP;
		shunt_impedance 10000+10000j;
		primary_voltage 2401.777000;
		secondary_voltage 120.000000;
		powerA_rating 15.000000 kVA;
		impedance 0.00033+0.0022j;
	};
	groupid Distribution_Trans_AS;
}

object triplex_meter {
	name TP_T_44_AS_684;
	phases AS;
	nominal_voltage 120.000000;
	groupid Trans_Meter_AS;
}

object transformer {
	name T_45_AS_671;
	from node671;
	to TP_T_45_AS_671;
	phases AS;
	configuration object transformer_configuration {
		connect_type SINGLE_PHASE_CENTER_TAPPED;
		install_type POLETOP;
		shunt_impedance 10000+10000j;
		primary_voltage 2401.777000;
		secondary_voltage 120.000000;
		powerA_rating 20.000000 kVA;
		impedance 0.00033+0.0022j;
	};
	groupid Distribution_Trans_AS;
}

object triplex_meter {
	name TP_T_45_AS_671;
	phases AS;
	nominal_voltage 120.000000;
	groupid Trans_Meter_AS;
}

object transformer {
	name T_46_AS_680;
	from node680;
	to TP_T_46_AS_680;
	phases AS;
	configuration object transformer_configuration {
		connect_type SINGLE_PHASE_CENTER_TAPPED;
		install_type POLETOP;
		shunt_impedance 10000+10000j;
		primary_voltage 2401.777000;
		secondary_voltage 120.000000;
		powerA_rating 30.000000 kVA;
		impedance 0.00033+0.0022j;
	};
	groupid Distribution_Trans_AS;
}

object triplex_meter {
	name TP_T_46_AS_680;
	phases AS;
	nominal_voltage 120.000000;
	groupid Trans_Meter_AS;
}

object transformer {
	name T_47_AS_692;
	from node692;
	to TP_T_47_AS_692;
	phases AS;
	configuration object transformer_configuration {
		connect_type SINGLE_PHASE_CENTER_TAPPED;
		install_type POLETOP;
		shunt_impedance 10000+10000j;
		primary_voltage 2401.777000;
		secondary_voltage 120.000000;
		powerA_rating 25.000000 kVA;
		impedance 0.00033+0.0022j;
	};
	groupid Distribution_Trans_AS;
}

object triplex_meter {
	name TP_T_47_AS_692;
	phases AS;
	nominal_voltage 120.000000;
	groupid Trans_Meter_AS;
}

object transformer {
	name T_48_AS_675;
	from node675;
	to TP_T_48_AS_675;
	phases AS;
	configuration object transformer_configuration {
		connect_type SINGLE_PHASE_CENTER_TAPPED;
		install_type POLETOP;
		shunt_impedance 10000+10000j;
		primary_voltage 2401.777000;
		secondary_voltage 120.000000;
		powerA_rating 35.000000 kVA;
		impedance 0.00033+0.0022j;
	};
	groupid Distribution_Trans_AS;
}

object triplex_meter {
	name TP_T_48_AS_675;
	phases AS;
	nominal_voltage 120.000000;
	groupid Trans_Meter_AS;
}

object transformer {
	name T_49_AS_632;
	from node632;
	to TP_T_49_AS_632;
	phases AS;
	configuration object transformer_configuration {
		connect_type SINGLE_PHASE_CENTER_TAPPED;
		install_type POLETOP;
		shunt_impedance 10000+10000j;
		primary_voltage 2401.777000;
		secondary_voltage 120.000000;
		powerA_rating 35.000000 kVA;
		impedance 0.00033+0.0022j;
	};
	groupid Distribution_Trans_AS;
}

object triplex_meter {
	name TP_T_49_AS_632;
	phases AS;
	nominal_voltage 120.000000;
	groupid Trans_Meter_AS;
}

object transformer {
	name T_50_AS_633;
	from node633;
	to TP_T_50_AS_633;
	phases AS;
	configuration object transformer_configuration {
		connect_type SINGLE_PHASE_CENTER_TAPPED;
		install_type POLETOP;
		shunt_impedance 10000+10000j;
		primary_voltage 2401.777000;
		secondary_voltage 120.000000;
		powerA_rating 30.000000 kVA;
		impedance 0.00033+0.0022j;
	};
	groupid Distribution_Trans_AS;
}

object triplex_meter {
	name TP_T_50_AS_633;
	phases AS;
	nominal_voltage 120.000000;
	groupid Trans_Meter_AS;
}

object transformer {
	name T_51_AS_652;
	from node652;
	to TP_T_51_AS_652;
	phases AS;
	configuration object transformer_configuration {
		connect_type SINGLE_PHASE_CENTER_TAPPED;
		install_type POLETOP;
		shunt_impedance 10000+10000j;
		primary_voltage 2401.777000;
		secondary_voltage 120.000000;
		powerA_rating 35.000000 kVA;
		impedance 0.00033+0.0022j;
	};
	groupid Distribution_Trans_AS;
}

object triplex_meter {
	name TP_T_51_AS_652;
	phases AS;
	nominal_voltage 120.000000;
	groupid Trans_Meter_AS;
}

object transformer {
	name T_52_AS_684;
	from node684;
	to TP_T_52_AS_684;
	phases AS;
	configuration object transformer_configuration {
		connect_type SINGLE_PHASE_CENTER_TAPPED;
		install_type POLETOP;
		shunt_impedance 10000+10000j;
		primary_voltage 2401.777000;
		secondary_voltage 120.000000;
		powerA_rating 35.000000 kVA;
		impedance 0.00033+0.0022j;
	};
	groupid Distribution_Trans_AS;
}

object triplex_meter {
	name TP_T_52_AS_684;
	phases AS;
	nominal_voltage 120.000000;
	groupid Trans_Meter_AS;
}

object transformer {
	name T_53_AS_671;
	from node671;
	to TP_T_53_AS_671;
	phases AS;
	configuration object transformer_configuration {
		connect_type SINGLE_PHASE_CENTER_TAPPED;
		install_type POLETOP;
		shunt_impedance 10000+10000j;
		primary_voltage 2401.777000;
		secondary_voltage 120.000000;
		powerA_rating 20.000000 kVA;
		impedance 0.00033+0.0022j;
	};
	groupid Distribution_Trans_AS;
}

object triplex_meter {
	name TP_T_53_AS_671;
	phases AS;
	nominal_voltage 120.000000;
	groupid Trans_Meter_AS;
}

object transformer {
	name T_54_AS_680;
	from node680;
	to TP_T_54_AS_680;
	phases AS;
	configuration object transformer_configuration {
		connect_type SINGLE_PHASE_CENTER_TAPPED;
		install_type POLETOP;
		shunt_impedance 10000+10000j;
		primary_voltage 2401.777000;
		secondary_voltage 120.000000;
		powerA_rating 20.000000 kVA;
		impedance 0.00033+0.0022j;
	};
	groupid Distribution_Trans_AS;
}

object triplex_meter {
	name TP_T_54_AS_680;
	phases AS;
	nominal_voltage 120.000000;
	groupid Trans_Meter_AS;
}

object transformer {
	name T_55_AS_692;
	from node692;
	to TP_T_55_AS_692;
	phases AS;
	configuration object transformer_configuration {
		connect_type SINGLE_PHASE_CENTER_TAPPED;
		install_type POLETOP;
		shunt_impedance 10000+10000j;
		primary_voltage 2401.777000;
		secondary_voltage 120.000000;
		powerA_rating 30.000000 kVA;
		impedance 0.00033+0.0022j;
	};
	groupid Distribution_Trans_AS;
}

object triplex_meter {
	name TP_T_55_AS_692;
	phases AS;
	nominal_voltage 120.000000;
	groupid Trans_Meter_AS;
}

object transformer {
	name T_56_AS_675;
	from node675;
	to TP_T_56_AS_675;
	phases AS;
	configuration object transformer_configuration {
		connect_type SINGLE_PHASE_CENTER_TAPPED;
		install_type POLETOP;
		shunt_impedance 10000+10000j;
		primary_voltage 2401.777000;
		secondary_voltage 120.000000;
		powerA_rating 25.000000 kVA;
		impedance 0.00033+0.0022j;
	};
	groupid Distribution_Trans_AS;
}

object triplex_meter {
	name TP_T_56_AS_675;
	phases AS;
	nominal_voltage 120.000000;
	groupid Trans_Meter_AS;
}

object transformer {
	name T_57_AS_632;
	from node632;
	to TP_T_57_AS_632;
	phases AS;
	configuration object transformer_configuration {
		connect_type SINGLE_PHASE_CENTER_TAPPED;
		install_type POLETOP;
		shunt_impedance 10000+10000j;
		primary_voltage 2401.777000;
		secondary_voltage 120.000000;
		powerA_rating 20.000000 kVA;
		impedance 0.00033+0.0022j;
	};